MODEL 1
REMARK VINA RESULT:    -5.554      0.000      0.000
REMARK INTER + INTRA:          -5.954
REMARK INTER:                  -5.879
REMARK INTRA:                  -0.075
REMARK UNBOUND:                -0.075
REMARK  Name = /home/UWO/dkim728/GxVAEs-main/blind_docking/input/conformer/com85/com85_variant0_conf1.pdb
REMARK  2 active torsions:
REMARK  status: ('A' for Active; 'I' for Inactive)
REMARK    1  A    between atoms: C_1  and  C_2
REMARK    2  A    between atoms: C_2  and  C_3
REMARK                            x       y       z     vdW  Elec       q    Type
REMARK                         _______ _______ _______ _____ _____    ______ ____
ROOT
ATOM      1  C   UNL     1      -0.972  27.585  24.945  0.00  0.00    +0.479 C 
ATOM      2  O   UNL     1      -1.203  26.384  24.755  0.00  0.00    -0.532 OA
ATOM      3  N   UNL     1      -1.323  28.533  23.984  0.00  0.00    -0.563 N 
ATOM      4  C   UNL     1      -2.138  28.092  22.847  0.00  0.00    +0.272 C 
ATOM      5  C   UNL     1      -1.720  28.802  21.566  0.00  0.00    +0.044 C 
ATOM      6  C   UNL     1      -1.820  30.308  21.758  0.00  0.00    +0.212 C 
ATOM      7  N   UNL     1      -1.236  30.728  23.016  0.00  0.00    -0.508 N 
ATOM      8  C   UNL     1      -0.981  29.881  24.077  0.00  0.00    +0.570 A 
ATOM      9  N   UNL     1      -0.389  30.545  25.046  0.00  0.00    -0.539 NA
ATOM     10  C   UNL     1      -0.292  31.850  24.614  0.00  0.00    +0.185 A 
ATOM     11  C   UNL     1       0.237  32.972  25.268  0.00  0.00    -0.016 A 
ATOM     12  C   UNL     1       0.216  34.209  24.607  0.00  0.00    +0.023 A 
ATOM     13  C   UNL     1      -0.325  34.328  23.318  0.00  0.00    +0.022 A 
ATOM     14  C   UNL     1      -0.853  33.217  22.656  0.00  0.00    -0.034 A 
ATOM     15  C   UNL     1      -0.822  31.994  23.337  0.00  0.00    +0.159 A 
ENDROOT
BRANCH   1  17
ATOM     16  C   UNL     1      -1.296  28.125  27.419  0.00  0.00    +0.148 C 
ATOM     17  C   UNL     1      -0.321  28.035  26.248  0.00  0.00    +0.079 C 
ENDBRANCH   1  17
TORSDOF 1
ENDMDL
MODEL 2
REMARK VINA RESULT:    -5.506      2.845      5.406
REMARK INTER + INTRA:          -5.903
REMARK INTER:                  -5.820
REMARK INTRA:                  -0.083
REMARK UNBOUND:                -0.075
REMARK  Name = /home/UWO/dkim728/GxVAEs-main/blind_docking/input/conformer/com85/com85_variant0_conf1.pdb
REMARK  2 active torsions:
REMARK  status: ('A' for Active; 'I' for Inactive)
REMARK    1  A    between atoms: C_1  and  C_2
REMARK    2  A    between atoms: C_2  and  C_3
REMARK                            x       y       z     vdW  Elec       q    Type
REMARK                         _______ _______ _______ _____ _____    ______ ____
ROOT
ATOM      1  C   UNL     1      -0.955  33.573  23.435  0.00  0.00    +0.479 C 
ATOM      2  O   UNL     1      -1.254  34.725  23.095  0.00  0.00    -0.532 OA
ATOM      3  N   UNL     1      -1.923  32.721  23.970  0.00  0.00    -0.563 N 
ATOM      4  C   UNL     1      -3.321  33.160  23.935  0.00  0.00    +0.272 C 
ATOM      5  C   UNL     1      -4.062  32.728  25.194  0.00  0.00    +0.044 C 
ATOM      6  C   UNL     1      -3.967  31.217  25.351  0.00  0.00    +0.212 C 
ATOM      7  N   UNL     1      -2.617  30.739  25.133  0.00  0.00    -0.508 N 
ATOM      8  C   UNL     1      -1.632  31.460  24.488  0.00  0.00    +0.570 A 
ATOM      9  N   UNL     1      -0.501  30.787  24.506  0.00  0.00    -0.539 NA
ATOM     10  C   UNL     1      -0.773  29.597  25.145  0.00  0.00    +0.185 A 
ATOM     11  C   UNL     1       0.072  28.511  25.413  0.00  0.00    -0.016 A 
ATOM     12  C   UNL     1      -0.453  27.398  26.085  0.00  0.00    +0.023 A 
ATOM     13  C   UNL     1      -1.798  27.364  26.481  0.00  0.00    +0.022 A 
ATOM     14  C   UNL     1      -2.651  28.440  26.221  0.00  0.00    -0.034 A 
ATOM     15  C   UNL     1      -2.103  29.539  25.548  0.00  0.00    +0.159 A 
ENDROOT
BRANCH   1  17
ATOM     16  C   UNL     1       0.792  32.661  21.811  0.00  0.00    +0.148 C 
ATOM     17  C   UNL     1       0.472  33.071  23.246  0.00  0.00    +0.079 C 
ENDBRANCH   1  17
TORSDOF 1
ENDMDL
MODEL 3
REMARK VINA RESULT:    -5.490      2.105      2.898
REMARK INTER + INTRA:          -5.886
REMARK INTER:                  -5.787
REMARK INTRA:                  -0.099
REMARK UNBOUND:                -0.075
REMARK  Name = /home/UWO/dkim728/GxVAEs-main/blind_docking/input/conformer/com85/com85_variant0_conf1.pdb
REMARK  2 active torsions:
REMARK  status: ('A' for Active; 'I' for Inactive)
REMARK    1  A    between atoms: C_1  and  C_2
REMARK    2  A    between atoms: C_2  and  C_3
REMARK                            x       y       z     vdW  Elec       q    Type
REMARK                         _______ _______ _______ _____ _____    ______ ____
ROOT
ATOM      1  C   UNL     1      -3.106  29.050  27.134  0.00  0.00    +0.479 C 
ATOM      2  O   UNL     1      -3.354  28.060  27.834  0.00  0.00    -0.532 OA
ATOM      3  N   UNL     1      -2.073  29.012  26.197  0.00  0.00    -0.563 N 
ATOM      4  C   UNL     1      -1.428  27.722  25.936  0.00  0.00    +0.272 C 
ATOM      5  C   UNL     1       0.067  27.894  25.702  0.00  0.00    +0.044 C 
ATOM      6  C   UNL     1       0.297  28.863  24.551  0.00  0.00    +0.212 C 
ATOM      7  N   UNL     1      -0.535  30.043  24.669  0.00  0.00    -0.508 N 
ATOM      8  C   UNL     1      -1.659  30.125  25.467  0.00  0.00    +0.570 A 
ATOM      9  N   UNL     1      -2.159  31.341  25.412  0.00  0.00    -0.539 NA
ATOM     10  C   UNL     1      -1.360  32.044  24.536  0.00  0.00    +0.185 A 
ATOM     11  C   UNL     1      -1.461  33.375  24.104  0.00  0.00    -0.016 A 
ATOM     12  C   UNL     1      -0.511  33.861  23.193  0.00  0.00    +0.023 A 
ATOM     13  C   UNL     1       0.519  33.036  22.717  0.00  0.00    +0.022 A 
ATOM     14  C   UNL     1       0.631  31.710  23.142  0.00  0.00    -0.034 A 
ATOM     15  C   UNL     1      -0.329  31.248  24.051  0.00  0.00    +0.159 A 
ENDROOT
BRANCH   1  17
ATOM     16  C   UNL     1      -4.060  30.816  28.713  0.00  0.00    +0.148 C 
ATOM     17  C   UNL     1      -3.951  30.311  27.277  0.00  0.00    +0.079 C 
ENDBRANCH   1  17
TORSDOF 1
ENDMDL
MODEL 4
REMARK VINA RESULT:    -5.097      2.195      5.146
REMARK INTER + INTRA:          -5.471
REMARK INTER:                  -5.363
REMARK INTRA:                  -0.108
REMARK UNBOUND:                -0.075
REMARK  Name = /home/UWO/dkim728/GxVAEs-main/blind_docking/input/conformer/com85/com85_variant0_conf1.pdb
REMARK  2 active torsions:
REMARK  status: ('A' for Active; 'I' for Inactive)
REMARK    1  A    between atoms: C_1  and  C_2
REMARK    2  A    between atoms: C_2  and  C_3
REMARK                            x       y       z     vdW  Elec       q    Type
REMARK                         _______ _______ _______ _____ _____    ______ ____
ROOT
ATOM      1  C   UNL     1      -0.019  32.232  24.182  0.00  0.00    +0.479 C 
ATOM      2  O   UNL     1       0.438  32.466  25.308  0.00  0.00    -0.532 OA
ATOM      3  N   UNL     1      -0.640  31.011  23.912  0.00  0.00    -0.563 N 
ATOM      4  C   UNL     1      -0.901  30.108  25.038  0.00  0.00    +0.272 C 
ATOM      5  C   UNL     1      -0.698  28.654  24.632  0.00  0.00    +0.044 C 
ATOM      6  C   UNL     1      -1.593  28.323  23.446  0.00  0.00    +0.212 C 
ATOM      7  N   UNL     1      -1.533  29.351  22.426  0.00  0.00    -0.508 N 
ATOM      8  C   UNL     1      -1.064  30.632  22.640  0.00  0.00    +0.570 A 
ATOM      9  N   UNL     1      -1.075  31.306  21.510  0.00  0.00    -0.539 NA
ATOM     10  C   UNL     1      -1.593  30.454  20.560  0.00  0.00    +0.185 A 
ATOM     11  C   UNL     1      -1.840  30.675  19.197  0.00  0.00    -0.016 A 
ATOM     12  C   UNL     1      -2.382  29.632  18.432  0.00  0.00    +0.023 A 
ATOM     13  C   UNL     1      -2.678  28.390  19.013  0.00  0.00    +0.022 A 
ATOM     14  C   UNL     1      -2.435  28.157  20.370  0.00  0.00    -0.034 A 
ATOM     15  C   UNL     1      -1.894  29.213  21.112  0.00  0.00    +0.159 A 
ENDROOT
BRANCH   1  17
ATOM     16  C   UNL     1      -0.772  34.531  23.368  0.00  0.00    +0.148 C 
ATOM     17  C   UNL     1       0.072  33.291  23.090  0.00  0.00    +0.079 C 
ENDBRANCH   1  17
TORSDOF 1
ENDMDL
MODEL 5
REMARK VINA RESULT:    -5.072      2.200      4.952
REMARK INTER + INTRA:          -5.444
REMARK INTER:                  -5.384
REMARK INTRA:                  -0.060
REMARK UNBOUND:                -0.075
REMARK  Name = /home/UWO/dkim728/GxVAEs-main/blind_docking/input/conformer/com85/com85_variant0_conf1.pdb
REMARK  2 active torsions:
REMARK  status: ('A' for Active; 'I' for Inactive)
REMARK    1  A    between atoms: C_1  and  C_2
REMARK    2  A    between atoms: C_2  and  C_3
REMARK                            x       y       z     vdW  Elec       q    Type
REMARK                         _______ _______ _______ _____ _____    ______ ____
ROOT
ATOM      1  C   UNL     1      -0.211  32.947  23.415  0.00  0.00    +0.479 C 
ATOM      2  O   UNL     1      -0.123  33.923  22.659  0.00  0.00    -0.532 OA
ATOM      3  N   UNL     1      -0.508  31.683  22.904  0.00  0.00    -0.563 N 
ATOM      4  C   UNL     1      -0.518  31.514  21.448  0.00  0.00    +0.272 C 
ATOM      5  C   UNL     1      -1.621  30.556  21.015  0.00  0.00    +0.044 C 
ATOM      6  C   UNL     1      -1.444  29.219  21.720  0.00  0.00    +0.212 C 
ATOM      7  N   UNL     1      -1.177  29.389  23.134  0.00  0.00    -0.508 N 
ATOM      8  C   UNL     1      -0.745  30.568  23.708  0.00  0.00    +0.570 A 
ATOM      9  N   UNL     1      -0.656  30.425  25.013  0.00  0.00    -0.539 NA
ATOM     10  C   UNL     1      -1.006  29.119  25.279  0.00  0.00    +0.185 A 
ATOM     11  C   UNL     1      -1.059  28.439  26.505  0.00  0.00    -0.016 A 
ATOM     12  C   UNL     1      -1.448  27.092  26.511  0.00  0.00    +0.023 A 
ATOM     13  C   UNL     1      -1.775  26.430  25.318  0.00  0.00    +0.022 A 
ATOM     14  C   UNL     1      -1.728  27.097  24.091  0.00  0.00    -0.034 A 
ATOM     15  C   UNL     1      -1.336  28.442  24.111  0.00  0.00    +0.159 A 
ENDROOT
BRANCH   1  17
ATOM     16  C   UNL     1       0.802  34.389  25.262  0.00  0.00    +0.148 C 
ATOM     17  C   UNL     1       0.029  33.121  24.910  0.00  0.00    +0.079 C 
ENDBRANCH   1  17
TORSDOF 1
ENDMDL
MODEL 6
REMARK VINA RESULT:    -4.947      1.802      2.720
REMARK INTER + INTRA:          -5.312
REMARK INTER:                  -5.234
REMARK INTRA:                  -0.078
REMARK UNBOUND:                -0.075
REMARK  Name = /home/UWO/dkim728/GxVAEs-main/blind_docking/input/conformer/com85/com85_variant0_conf1.pdb
REMARK  2 active torsions:
REMARK  status: ('A' for Active; 'I' for Inactive)
REMARK    1  A    between atoms: C_1  and  C_2
REMARK    2  A    between atoms: C_2  and  C_3
REMARK                            x       y       z     vdW  Elec       q    Type
REMARK                         _______ _______ _______ _____ _____    ______ ____
ROOT
ATOM      1  C   UNL     1      -2.185  27.119  27.392  0.00  0.00    +0.479 C 
ATOM      2  O   UNL     1      -2.659  26.098  27.907  0.00  0.00    -0.532 OA
ATOM      3  N   UNL     1      -2.195  27.280  26.006  0.00  0.00    -0.563 N 
ATOM      4  C   UNL     1      -2.946  26.308  25.205  0.00  0.00    +0.272 C 
ATOM      5  C   UNL     1      -2.228  26.005  23.896  0.00  0.00    +0.044 C 
ATOM      6  C   UNL     1      -2.006  27.296  23.122  0.00  0.00    +0.212 C 
ATOM      7  N   UNL     1      -1.496  28.351  23.975  0.00  0.00    -0.508 N 
ATOM      8  C   UNL     1      -1.569  28.341  25.353  0.00  0.00    +0.570 A 
ATOM      9  N   UNL     1      -0.962  29.402  25.842  0.00  0.00    -0.539 NA
ATOM     10  C   UNL     1      -0.520  30.124  24.755  0.00  0.00    +0.185 A 
ATOM     11  C   UNL     1       0.168  31.346  24.711  0.00  0.00    -0.016 A 
ATOM     12  C   UNL     1       0.508  31.883  23.462  0.00  0.00    +0.023 A 
ATOM     13  C   UNL     1       0.166  31.220  22.274  0.00  0.00    +0.022 A 
ATOM     14  C   UNL     1      -0.518  30.002  22.304  0.00  0.00    -0.034 A 
ATOM     15  C   UNL     1      -0.847  29.485  23.564  0.00  0.00    +0.159 A 
ENDROOT
BRANCH   1  17
ATOM     16  C   UNL     1      -2.479  28.547  29.488  0.00  0.00    +0.148 C 
ATOM     17  C   UNL     1      -1.610  28.218  28.276  0.00  0.00    +0.079 C 
ENDBRANCH   1  17
TORSDOF 1
ENDMDL
MODEL 7
REMARK VINA RESULT:    -4.638      1.851      3.595
REMARK INTER + INTRA:          -4.985
REMARK INTER:                  -4.922
REMARK INTRA:                  -0.062
REMARK UNBOUND:                -0.075
REMARK  Name = /home/UWO/dkim728/GxVAEs-main/blind_docking/input/conformer/com85/com85_variant0_conf1.pdb
REMARK  2 active torsions:
REMARK  status: ('A' for Active; 'I' for Inactive)
REMARK    1  A    between atoms: C_1  and  C_2
REMARK    2  A    between atoms: C_2  and  C_3
REMARK                            x       y       z     vdW  Elec       q    Type
REMARK                         _______ _______ _______ _____ _____    ______ ____
ROOT
ATOM      1  C   UNL     1      -2.149  27.468  21.104  0.00  0.00    +0.479 C 
ATOM      2  O   UNL     1      -2.774  26.405  20.993  0.00  0.00    -0.532 OA
ATOM      3  N   UNL     1      -2.073  28.117  22.337  0.00  0.00    -0.563 N 
ATOM      4  C   UNL     1      -2.583  27.413  23.518  0.00  0.00    +0.272 C 
ATOM      5  C   UNL     1      -3.267  28.377  24.478  0.00  0.00    +0.044 C 
ATOM      6  C   UNL     1      -2.295  29.479  24.876  0.00  0.00    +0.212 C 
ATOM      7  N   UNL     1      -1.591  30.013  23.728  0.00  0.00    -0.508 N 
ATOM      8  C   UNL     1      -1.495  29.374  22.508  0.00  0.00    +0.570 A 
ATOM      9  N   UNL     1      -0.852  30.138  21.651  0.00  0.00    -0.539 NA
ATOM     10  C   UNL     1      -0.498  31.276  22.344  0.00  0.00    +0.185 A 
ATOM     11  C   UNL     1       0.218  32.401  21.911  0.00  0.00    -0.016 A 
ATOM     12  C   UNL     1       0.454  33.441  22.822  0.00  0.00    +0.023 A 
ATOM     13  C   UNL     1      -0.011  33.362  24.143  0.00  0.00    +0.022 A 
ATOM     14  C   UNL     1      -0.727  32.246  24.586  0.00  0.00    -0.034 A 
ATOM     15  C   UNL     1      -0.949  31.221  23.658  0.00  0.00    +0.159 A 
ENDROOT
BRANCH   1  17
ATOM     16  C   UNL     1      -1.067  27.025  18.834  0.00  0.00    +0.148 C 
ATOM     17  C   UNL     1      -1.436  28.060  19.894  0.00  0.00    +0.079 C 
ENDBRANCH   1  17
TORSDOF 1
ENDMDL
MODEL 8
REMARK VINA RESULT:    -4.398      1.638      3.951
REMARK INTER + INTRA:          -4.731
REMARK INTER:                  -4.625
REMARK INTRA:                  -0.105
REMARK UNBOUND:                -0.075
REMARK  Name = /home/UWO/dkim728/GxVAEs-main/blind_docking/input/conformer/com85/com85_variant0_conf1.pdb
REMARK  2 active torsions:
REMARK  status: ('A' for Active; 'I' for Inactive)
REMARK    1  A    between atoms: C_1  and  C_2
REMARK    2  A    between atoms: C_2  and  C_3
REMARK                            x       y       z     vdW  Elec       q    Type
REMARK                         _______ _______ _______ _____ _____    ______ ____
ROOT
ATOM      1  C   UNL     1      -0.467  28.002  25.763  0.00  0.00    +0.479 C 
ATOM      2  O   UNL     1       0.028  28.028  26.897  0.00  0.00    -0.532 OA
ATOM      3  N   UNL     1      -0.227  29.041  24.863  0.00  0.00    -0.563 N 
ATOM      4  C   UNL     1       0.772  30.051  25.228  0.00  0.00    +0.272 C 
ATOM      5  C   UNL     1       0.346  31.437  24.761  0.00  0.00    +0.044 C 
ATOM      6  C   UNL     1       0.109  31.420  23.258  0.00  0.00    +0.212 C 
ATOM      7  N   UNL     1      -0.673  30.271  22.851  0.00  0.00    -0.508 N 
ATOM      8  C   UNL     1      -0.851  29.138  23.620  0.00  0.00    +0.570 A 
ATOM      9  N   UNL     1      -1.663  28.303  23.008  0.00  0.00    -0.539 NA
ATOM     10  C   UNL     1      -1.986  28.896  21.807  0.00  0.00    +0.185 A 
ATOM     11  C   UNL     1      -2.801  28.425  20.767  0.00  0.00    -0.016 A 
ATOM     12  C   UNL     1      -2.973  29.227  19.630  0.00  0.00    +0.023 A 
ATOM     13  C   UNL     1      -2.342  30.475  19.526  0.00  0.00    +0.022 A 
ATOM     14  C   UNL     1      -1.530  30.956  20.556  0.00  0.00    -0.034 A 
ATOM     15  C   UNL     1      -1.373  30.137  21.680  0.00  0.00    +0.159 A 
ENDROOT
BRANCH   1  17
ATOM     16  C   UNL     1      -0.563  25.495  25.293  0.00  0.00    +0.148 C 
ATOM     17  C   UNL     1      -1.325  26.817  25.337  0.00  0.00    +0.079 C 
ENDBRANCH   1  17
TORSDOF 1
ENDMDL
MODEL 9
REMARK VINA RESULT:    -4.332      2.437      5.271
REMARK INTER + INTRA:          -4.661
REMARK INTER:                  -4.554
REMARK INTRA:                  -0.107
REMARK UNBOUND:                -0.075
REMARK  Name = /home/UWO/dkim728/GxVAEs-main/blind_docking/input/conformer/com85/com85_variant0_conf1.pdb
REMARK  2 active torsions:
REMARK  status: ('A' for Active; 'I' for Inactive)
REMARK    1  A    between atoms: C_1  and  C_2
REMARK    2  A    between atoms: C_2  and  C_3
REMARK                            x       y       z     vdW  Elec       q    Type
REMARK                         _______ _______ _______ _____ _____    ______ ____
ROOT
ATOM      1  C   UNL     1      -1.918  30.120  20.065  0.00  0.00    +0.479 C 
ATOM      2  O   UNL     1      -1.838  30.834  19.057  0.00  0.00    -0.532 OA
ATOM      3  N   UNL     1      -1.265  30.484  21.243  0.00  0.00    -0.563 N 
ATOM      4  C   UNL     1      -0.652  31.814  21.307  0.00  0.00    +0.272 C 
ATOM      5  C   UNL     1       0.657  31.778  22.084  0.00  0.00    +0.044 C 
ATOM      6  C   UNL     1       0.409  31.223  23.480  0.00  0.00    +0.212 C 
ATOM      7  N   UNL     1      -0.420  30.035  23.445  0.00  0.00    -0.508 N 
ATOM      8  C   UNL     1      -1.209  29.669  22.372  0.00  0.00    +0.570 A 
ATOM      9  N   UNL     1      -1.788  28.512  22.617  0.00  0.00    -0.539 NA
ATOM     10  C   UNL     1      -1.389  28.145  23.884  0.00  0.00    +0.185 A 
ATOM     11  C   UNL     1      -1.730  27.012  24.636  0.00  0.00    -0.016 A 
ATOM     12  C   UNL     1      -1.187  26.867  25.921  0.00  0.00    +0.023 A 
ATOM     13  C   UNL     1      -0.321  27.835  26.450  0.00  0.00    +0.022 A 
ATOM     14  C   UNL     1       0.028  28.968  25.710  0.00  0.00    -0.034 A 
ATOM     15  C   UNL     1      -0.528  29.090  24.430  0.00  0.00    +0.159 A 
ENDROOT
BRANCH   1  17
ATOM     16  C   UNL     1      -2.233  27.798  19.051  0.00  0.00    +0.148 C 
ATOM     17  C   UNL     1      -2.756  28.847  20.029  0.00  0.00    +0.079 C 
ENDBRANCH   1  17
TORSDOF 1
ENDMDL
