MODEL 1
REMARK VINA RESULT:    -5.523      0.000      0.000
REMARK INTER + INTRA:          -5.948
REMARK INTER:                  -5.846
REMARK INTRA:                  -0.102
REMARK UNBOUND:                -0.102
REMARK  Name = /home/UWO/dkim728/GxVAEs-main/blind_docking/input/conformer/com85/com85_variant0_conf3.pdb
REMARK  2 active torsions:
REMARK  status: ('A' for Active; 'I' for Inactive)
REMARK    1  A    between atoms: C_1  and  C_2
REMARK    2  A    between atoms: C_2  and  C_3
REMARK                            x       y       z     vdW  Elec       q    Type
REMARK                         _______ _______ _______ _____ _____    ______ ____
ROOT
ATOM      1  C   UNL     1      -1.057  27.571  25.173  0.00  0.00    +0.479 C 
ATOM      2  O   UNL     1      -1.278  26.359  25.058  0.00  0.00    -0.532 OA
ATOM      3  N   UNL     1      -1.398  28.454  24.146  0.00  0.00    -0.563 N 
ATOM      4  C   UNL     1      -2.199  27.935  23.032  0.00  0.00    +0.272 C 
ATOM      5  C   UNL     1      -1.772  28.563  21.712  0.00  0.00    +0.043 C 
ATOM      6  C   UNL     1      -1.879  30.078  21.807  0.00  0.00    +0.212 C 
ATOM      7  N   UNL     1      -1.307  30.581  23.040  0.00  0.00    -0.509 N 
ATOM      8  C   UNL     1      -1.060  29.805  24.153  0.00  0.00    +0.571 A 
ATOM      9  N   UNL     1      -0.475  30.528  25.083  0.00  0.00    -0.539 NA
ATOM     10  C   UNL     1      -0.375  31.801  24.569  0.00  0.00    +0.186 A 
ATOM     11  C   UNL     1       0.155  32.965  25.151  0.00  0.00    -0.016 A 
ATOM     12  C   UNL     1       0.140  34.155  24.413  0.00  0.00    +0.023 A 
ATOM     13  C   UNL     1      -0.390  34.191  23.122  0.00  0.00    +0.022 A 
ATOM     14  C   UNL     1      -0.922  33.042  22.525  0.00  0.00    -0.035 A 
ATOM     15  C   UNL     1      -0.895  31.865  23.282  0.00  0.00    +0.159 A 
ENDROOT
BRANCH   1  17
ATOM     16  C   UNL     1      -1.398  28.154  27.635  0.00  0.00    +0.148 C 
ATOM     17  C   UNL     1      -0.431  28.111  26.453  0.00  0.00    +0.079 C 
ENDBRANCH   1  17
TORSDOF 1
ENDMDL
MODEL 2
REMARK VINA RESULT:    -5.515      2.845      5.416
REMARK INTER + INTRA:          -5.939
REMARK INTER:                  -5.867
REMARK INTRA:                  -0.072
REMARK UNBOUND:                -0.102
REMARK  Name = /home/UWO/dkim728/GxVAEs-main/blind_docking/input/conformer/com85/com85_variant0_conf3.pdb
REMARK  2 active torsions:
REMARK  status: ('A' for Active; 'I' for Inactive)
REMARK    1  A    between atoms: C_1  and  C_2
REMARK    2  A    between atoms: C_2  and  C_3
REMARK                            x       y       z     vdW  Elec       q    Type
REMARK                         _______ _______ _______ _____ _____    ______ ____
ROOT
ATOM      1  C   UNL     1      -0.948  33.598  23.417  0.00  0.00    +0.479 C 
ATOM      2  O   UNL     1      -1.266  34.745  23.082  0.00  0.00    -0.532 OA
ATOM      3  N   UNL     1      -1.902  32.724  23.944  0.00  0.00    -0.563 N 
ATOM      4  C   UNL     1      -3.310  33.134  23.898  0.00  0.00    +0.272 C 
ATOM      5  C   UNL     1      -4.053  32.680  25.146  0.00  0.00    +0.043 C 
ATOM      6  C   UNL     1      -3.925  31.171  25.299  0.00  0.00    +0.212 C 
ATOM      7  N   UNL     1      -2.561  30.724  25.093  0.00  0.00    -0.509 N 
ATOM      8  C   UNL     1      -1.589  31.469  24.462  0.00  0.00    +0.571 A 
ATOM      9  N   UNL     1      -0.441  30.826  24.491  0.00  0.00    -0.539 NA
ATOM     10  C   UNL     1      -0.691  29.631  25.126  0.00  0.00    +0.186 A 
ATOM     11  C   UNL     1       0.181  28.565  25.408  0.00  0.00    -0.016 A 
ATOM     12  C   UNL     1      -0.323  27.439  26.071  0.00  0.00    +0.023 A 
ATOM     13  C   UNL     1      -1.665  27.372  26.450  0.00  0.00    +0.022 A 
ATOM     14  C   UNL     1      -2.549  28.423  26.177  0.00  0.00    -0.035 A 
ATOM     15  C   UNL     1      -2.022  29.536  25.513  0.00  0.00    +0.159 A 
ENDROOT
BRANCH   1  17
ATOM     16  C   UNL     1       0.806  32.682  21.804  0.00  0.00    +0.148 C 
ATOM     17  C   UNL     1       0.488  33.123  23.231  0.00  0.00    +0.079 C 
ENDBRANCH   1  17
TORSDOF 1
ENDMDL
MODEL 3
REMARK VINA RESULT:    -5.284      1.924      2.594
REMARK INTER + INTRA:          -5.695
REMARK INTER:                  -5.622
REMARK INTRA:                  -0.073
REMARK UNBOUND:                -0.102
REMARK  Name = /home/UWO/dkim728/GxVAEs-main/blind_docking/input/conformer/com85/com85_variant0_conf3.pdb
REMARK  2 active torsions:
REMARK  status: ('A' for Active; 'I' for Inactive)
REMARK    1  A    between atoms: C_1  and  C_2
REMARK    2  A    between atoms: C_2  and  C_3
REMARK                            x       y       z     vdW  Elec       q    Type
REMARK                         _______ _______ _______ _____ _____    ______ ____
ROOT
ATOM      1  C   UNL     1      -1.407  27.760  26.392  0.00  0.00    +0.479 C 
ATOM      2  O   UNL     1      -2.015  26.914  27.058  0.00  0.00    -0.532 OA
ATOM      3  N   UNL     1      -1.935  29.042  26.223  0.00  0.00    -0.563 N 
ATOM      4  C   UNL     1      -3.114  29.410  27.014  0.00  0.00    +0.272 C 
ATOM      5  C   UNL     1      -4.061  30.289  26.210  0.00  0.00    +0.043 C 
ATOM      6  C   UNL     1      -3.321  31.525  25.719  0.00  0.00    +0.212 C 
ATOM      7  N   UNL     1      -2.027  31.189  25.157  0.00  0.00    -0.509 N 
ATOM      8  C   UNL     1      -1.371  29.998  25.381  0.00  0.00    +0.571 A 
ATOM      9  N   UNL     1      -0.258  29.961  24.681  0.00  0.00    -0.539 NA
ATOM     10  C   UNL     1      -0.183  31.165  24.020  0.00  0.00    +0.186 A 
ATOM     11  C   UNL     1       0.809  31.653  23.152  0.00  0.00    -0.016 A 
ATOM     12  C   UNL     1       0.653  32.931  22.601  0.00  0.00    +0.023 A 
ATOM     13  C   UNL     1      -0.465  33.711  22.903  0.00  0.00    +0.022 A 
ATOM     14  C   UNL     1      -1.463  33.243  23.767  0.00  0.00    -0.035 A 
ATOM     15  C   UNL     1      -1.284  31.963  24.305  0.00  0.00    +0.159 A 
ENDROOT
BRANCH   1  17
ATOM     16  C   UNL     1       0.058  25.951  25.346  0.00  0.00    +0.148 C 
ATOM     17  C   UNL     1      -0.059  27.412  25.773  0.00  0.00    +0.079 C 
ENDBRANCH   1  17
TORSDOF 1
ENDMDL
MODEL 4
REMARK VINA RESULT:    -5.055      2.246      5.097
REMARK INTER + INTRA:          -5.453
REMARK INTER:                  -5.346
REMARK INTRA:                  -0.107
REMARK UNBOUND:                -0.102
REMARK  Name = /home/UWO/dkim728/GxVAEs-main/blind_docking/input/conformer/com85/com85_variant0_conf3.pdb
REMARK  2 active torsions:
REMARK  status: ('A' for Active; 'I' for Inactive)
REMARK    1  A    between atoms: C_1  and  C_2
REMARK    2  A    between atoms: C_2  and  C_3
REMARK                            x       y       z     vdW  Elec       q    Type
REMARK                         _______ _______ _______ _____ _____    ______ ____
ROOT
ATOM      1  C   UNL     1      -0.110  32.204  24.149  0.00  0.00    +0.479 C 
ATOM      2  O   UNL     1       0.339  32.435  25.278  0.00  0.00    -0.532 OA
ATOM      3  N   UNL     1      -0.735  30.987  23.869  0.00  0.00    -0.563 N 
ATOM      4  C   UNL     1      -1.019  30.087  24.992  0.00  0.00    +0.272 C 
ATOM      5  C   UNL     1      -0.826  28.632  24.589  0.00  0.00    +0.043 C 
ATOM      6  C   UNL     1      -1.708  28.310  23.390  0.00  0.00    +0.212 C 
ATOM      7  N   UNL     1      -1.624  29.338  22.371  0.00  0.00    -0.509 N 
ATOM      8  C   UNL     1      -1.145  30.611  22.592  0.00  0.00    +0.571 A 
ATOM      9  N   UNL     1      -1.128  31.286  21.463  0.00  0.00    -0.539 NA
ATOM     10  C   UNL     1      -1.637  30.439  20.506  0.00  0.00    +0.186 A 
ATOM     11  C   UNL     1      -1.854  30.661  19.135  0.00  0.00    -0.016 A 
ATOM     12  C   UNL     1      -2.394  29.626  18.361  0.00  0.00    +0.023 A 
ATOM     13  C   UNL     1      -2.712  28.393  18.935  0.00  0.00    +0.022 A 
ATOM     14  C   UNL     1      -2.503  28.154  20.299  0.00  0.00    -0.035 A 
ATOM     15  C   UNL     1      -1.963  29.203  21.050  0.00  0.00    +0.159 A 
ENDROOT
BRANCH   1  17
ATOM     16  C   UNL     1      -0.821  34.523  23.351  0.00  0.00    +0.148 C 
ATOM     17  C   UNL     1      -0.005  33.265  23.060  0.00  0.00    +0.079 C 
ENDBRANCH   1  17
TORSDOF 1
ENDMDL
MODEL 5
REMARK VINA RESULT:    -4.961      1.286      1.664
REMARK INTER + INTRA:          -5.353
REMARK INTER:                  -5.264
REMARK INTRA:                  -0.089
REMARK UNBOUND:                -0.102
REMARK  Name = /home/UWO/dkim728/GxVAEs-main/blind_docking/input/conformer/com85/com85_variant0_conf3.pdb
REMARK  2 active torsions:
REMARK  status: ('A' for Active; 'I' for Inactive)
REMARK    1  A    between atoms: C_1  and  C_2
REMARK    2  A    between atoms: C_2  and  C_3
REMARK                            x       y       z     vdW  Elec       q    Type
REMARK                         _______ _______ _______ _____ _____    ______ ____
ROOT
ATOM      1  C   UNL     1      -1.805  27.276  26.654  0.00  0.00    +0.479 C 
ATOM      2  O   UNL     1      -2.186  26.155  27.015  0.00  0.00    -0.532 OA
ATOM      3  N   UNL     1      -1.939  27.675  25.323  0.00  0.00    -0.563 N 
ATOM      4  C   UNL     1      -2.720  26.818  24.424  0.00  0.00    +0.272 C 
ATOM      5  C   UNL     1      -2.110  26.789  23.029  0.00  0.00    +0.043 C 
ATOM      6  C   UNL     1      -2.008  28.207  22.485  0.00  0.00    +0.212 C 
ATOM      7  N   UNL     1      -1.465  29.122  23.469  0.00  0.00    -0.509 N 
ATOM      8  C   UNL     1      -1.415  28.865  24.822  0.00  0.00    +0.571 A 
ATOM      9  N   UNL     1      -0.805  29.850  25.445  0.00  0.00    -0.539 NA
ATOM     10  C   UNL     1      -0.487  30.773  24.475  0.00  0.00    +0.186 A 
ATOM     11  C   UNL     1       0.157  32.016  24.596  0.00  0.00    -0.016 A 
ATOM     12  C   UNL     1       0.366  32.783  23.442  0.00  0.00    +0.023 A 
ATOM     13  C   UNL     1      -0.054  32.325  22.192  0.00  0.00    +0.022 A 
ATOM     14  C   UNL     1      -0.698  31.089  22.051  0.00  0.00    -0.035 A 
ATOM     15  C   UNL     1      -0.895  30.343  23.219  0.00  0.00    +0.159 A 
ENDROOT
BRANCH   1  17
ATOM     16  C   UNL     1      -2.094  28.462  28.896  0.00  0.00    +0.148 C 
ATOM     17  C   UNL     1      -1.207  28.238  27.673  0.00  0.00    +0.079 C 
ENDBRANCH   1  17
TORSDOF 1
ENDMDL
MODEL 6
REMARK VINA RESULT:    -4.716      2.010      4.055
REMARK INTER + INTRA:          -5.094
REMARK INTER:                  -4.988
REMARK INTRA:                  -0.107
REMARK UNBOUND:                -0.102
REMARK  Name = /home/UWO/dkim728/GxVAEs-main/blind_docking/input/conformer/com85/com85_variant0_conf3.pdb
REMARK  2 active torsions:
REMARK  status: ('A' for Active; 'I' for Inactive)
REMARK    1  A    between atoms: C_1  and  C_2
REMARK    2  A    between atoms: C_2  and  C_3
REMARK                            x       y       z     vdW  Elec       q    Type
REMARK                         _______ _______ _______ _____ _____    ______ ____
ROOT
ATOM      1  C   UNL     1      -2.799  29.223  20.356  0.00  0.00    +0.479 C 
ATOM      2  O   UNL     1      -3.337  28.198  19.920  0.00  0.00    -0.532 OA
ATOM      3  N   UNL     1      -2.129  29.206  21.581  0.00  0.00    -0.563 N 
ATOM      4  C   UNL     1      -1.913  27.907  22.228  0.00  0.00    +0.272 C 
ATOM      5  C   UNL     1      -2.045  28.020  23.740  0.00  0.00    +0.043 C 
ATOM      6  C   UNL     1      -1.069  29.064  24.264  0.00  0.00    +0.212 C 
ATOM      7  N   UNL     1      -1.096  30.273  23.465  0.00  0.00    -0.509 N 
ATOM      8  C   UNL     1      -1.617  30.349  22.191  0.00  0.00    +0.571 A 
ATOM      9  N   UNL     1      -1.562  31.589  21.757  0.00  0.00    -0.539 NA
ATOM     10  C   UNL     1      -0.964  32.317  22.760  0.00  0.00    +0.186 A 
ATOM     11  C   UNL     1      -0.648  33.686  22.810  0.00  0.00    -0.016 A 
ATOM     12  C   UNL     1      -0.030  34.194  23.959  0.00  0.00    +0.023 A 
ATOM     13  C   UNL     1       0.268  33.362  25.040  0.00  0.00    +0.022 A 
ATOM     14  C   UNL     1      -0.038  31.995  25.008  0.00  0.00    -0.035 A 
ATOM     15  C   UNL     1      -0.655  31.512  23.849  0.00  0.00    +0.159 A 
ENDROOT
BRANCH   1  17
ATOM     16  C   UNL     1      -2.086  30.419  18.217  0.00  0.00    +0.148 C 
ATOM     17  C   UNL     1      -2.843  30.509  19.540  0.00  0.00    +0.079 C 
ENDBRANCH   1  17
TORSDOF 1
ENDMDL
MODEL 7
REMARK VINA RESULT:    -4.622      1.819      3.640
REMARK INTER + INTRA:          -4.995
REMARK INTER:                  -4.926
REMARK INTRA:                  -0.069
REMARK UNBOUND:                -0.102
REMARK  Name = /home/UWO/dkim728/GxVAEs-main/blind_docking/input/conformer/com85/com85_variant0_conf3.pdb
REMARK  2 active torsions:
REMARK  status: ('A' for Active; 'I' for Inactive)
REMARK    1  A    between atoms: C_1  and  C_2
REMARK    2  A    between atoms: C_2  and  C_3
REMARK                            x       y       z     vdW  Elec       q    Type
REMARK                         _______ _______ _______ _____ _____    ______ ____
ROOT
ATOM      1  C   UNL     1      -2.212  27.459  21.174  0.00  0.00    +0.479 C 
ATOM      2  O   UNL     1      -2.853  26.405  21.078  0.00  0.00    -0.532 OA
ATOM      3  N   UNL     1      -2.049  28.080  22.414  0.00  0.00    -0.563 N 
ATOM      4  C   UNL     1      -2.481  27.349  23.611  0.00  0.00    +0.272 C 
ATOM      5  C   UNL     1      -3.089  28.292  24.639  0.00  0.00    +0.043 C 
ATOM      6  C   UNL     1      -2.084  29.380  24.993  0.00  0.00    +0.212 C 
ATOM      7  N   UNL     1      -1.460  29.939  23.811  0.00  0.00    -0.509 N 
ATOM      8  C   UNL     1      -1.456  29.330  22.575  0.00  0.00    +0.571 A 
ATOM      9  N   UNL     1      -0.875  30.112  21.690  0.00  0.00    -0.539 NA
ATOM     10  C   UNL     1      -0.470  31.231  22.381  0.00  0.00    +0.186 A 
ATOM     11  C   UNL     1       0.213  32.370  21.922  0.00  0.00    -0.016 A 
ATOM     12  C   UNL     1       0.518  33.388  22.835  0.00  0.00    +0.023 A 
ATOM     13  C   UNL     1       0.152  33.278  24.178  0.00  0.00    +0.022 A 
ATOM     14  C   UNL     1      -0.528  32.150  24.654  0.00  0.00    -0.035 A 
ATOM     15  C   UNL     1      -0.821  31.149  23.722  0.00  0.00    +0.159 A 
ENDROOT
BRANCH   1  17
ATOM     16  C   UNL     1      -1.060  27.039  18.935  0.00  0.00    +0.148 C 
ATOM     17  C   UNL     1      -1.573  28.073  19.935  0.00  0.00    +0.079 C 
ENDBRANCH   1  17
TORSDOF 1
ENDMDL
MODEL 8
REMARK VINA RESULT:    -4.373      1.623      3.481
REMARK INTER + INTRA:          -4.731
REMARK INTER:                  -4.626
REMARK INTRA:                  -0.105
REMARK UNBOUND:                -0.102
REMARK  Name = /home/UWO/dkim728/GxVAEs-main/blind_docking/input/conformer/com85/com85_variant0_conf3.pdb
REMARK  2 active torsions:
REMARK  status: ('A' for Active; 'I' for Inactive)
REMARK    1  A    between atoms: C_1  and  C_2
REMARK    2  A    between atoms: C_2  and  C_3
REMARK                            x       y       z     vdW  Elec       q    Type
REMARK                         _______ _______ _______ _____ _____    ______ ____
ROOT
ATOM      1  C   UNL     1      -2.508  26.472  23.597  0.00  0.00    +0.479 C 
ATOM      2  O   UNL     1      -2.944  25.487  24.205  0.00  0.00    -0.532 OA
ATOM      3  N   UNL     1      -1.557  27.307  24.189  0.00  0.00    -0.563 N 
ATOM      4  C   UNL     1      -0.951  26.871  25.452  0.00  0.00    +0.272 C 
ATOM      5  C   UNL     1      -0.713  28.052  26.382  0.00  0.00    +0.043 C 
ATOM      6  C   UNL     1       0.158  29.087  25.683  0.00  0.00    +0.212 C 
ATOM      7  N   UNL     1      -0.291  29.340  24.328  0.00  0.00    -0.509 N 
ATOM      8  C   UNL     1      -1.123  28.501  23.618  0.00  0.00    +0.571 A 
ATOM      9  N   UNL     1      -1.407  29.034  22.450  0.00  0.00    -0.539 NA
ATOM     10  C   UNL     1      -0.716  30.223  22.397  0.00  0.00    +0.186 A 
ATOM     11  C   UNL     1      -0.652  31.179  21.368  0.00  0.00    -0.016 A 
ATOM     12  C   UNL     1       0.134  32.322  21.557  0.00  0.00    +0.023 A 
ATOM     13  C   UNL     1       0.844  32.515  22.744  0.00  0.00    +0.022 A 
ATOM     14  C   UNL     1       0.794  31.574  23.780  0.00  0.00    -0.035 A 
ATOM     15  C   UNL     1       0.001  30.441  23.567  0.00  0.00    +0.159 A 
ENDROOT
BRANCH   1  17
ATOM     16  C   UNL     1      -2.418  25.817  21.132  0.00  0.00    +0.148 C 
ATOM     17  C   UNL     1      -2.991  26.766  22.182  0.00  0.00    +0.079 C 
ENDBRANCH   1  17
TORSDOF 1
ENDMDL
