MODEL 1
REMARK VINA RESULT:    -5.558      0.000      0.000
REMARK INTER + INTRA:          -5.977
REMARK INTER:                  -5.883
REMARK INTRA:                  -0.094
REMARK UNBOUND:                -0.094
REMARK  Name = /home/UWO/dkim728/GxVAEs-main/blind_docking/input/conformer/com85/com85_variant0_conf6.pdb
REMARK  2 active torsions:
REMARK  status: ('A' for Active; 'I' for Inactive)
REMARK    1  A    between atoms: C_1  and  C_2
REMARK    2  A    between atoms: C_2  and  C_3
REMARK                            x       y       z     vdW  Elec       q    Type
REMARK                         _______ _______ _______ _____ _____    ______ ____
ROOT
ATOM      1  C   UNL     1      -3.063  29.162  27.175  0.00  0.00    +0.480 C 
ATOM      2  O   UNL     1      -3.311  28.164  27.864  0.00  0.00    -0.532 OA
ATOM      3  N   UNL     1      -2.050  29.130  26.220  0.00  0.00    -0.564 N 
ATOM      4  C   UNL     1      -1.435  27.833  25.916  0.00  0.00    +0.272 C 
ATOM      5  C   UNL     1       0.058  27.985  25.656  0.00  0.00    +0.044 C 
ATOM      6  C   UNL     1       0.284  28.980  24.526  0.00  0.00    +0.212 C 
ATOM      7  N   UNL     1      -0.525  30.171  24.687  0.00  0.00    -0.509 N 
ATOM      8  C   UNL     1      -1.633  30.253  25.508  0.00  0.00    +0.572 A 
ATOM      9  N   UNL     1      -2.113  31.473  25.497  0.00  0.00    -0.540 NA
ATOM     10  C   UNL     1      -1.324  32.186  24.617  0.00  0.00    +0.185 A 
ATOM     11  C   UNL     1      -1.411  33.527  24.218  0.00  0.00    -0.016 A 
ATOM     12  C   UNL     1      -0.479  34.019  23.291  0.00  0.00    +0.022 A 
ATOM     13  C   UNL     1       0.523  33.192  22.777  0.00  0.00    +0.023 A 
ATOM     14  C   UNL     1       0.627  31.852  23.166  0.00  0.00    -0.035 A 
ATOM     15  C   UNL     1      -0.315  31.385  24.086  0.00  0.00    +0.159 A 
ENDROOT
BRANCH   1  17
ATOM     16  C   UNL     1      -4.062  30.834  28.820  0.00  0.00    +0.149 C 
ATOM     17  C   UNL     1      -3.889  30.430  27.360  0.00  0.00    +0.079 C 
ENDBRANCH   1  17
TORSDOF 1
ENDMDL
MODEL 2
REMARK VINA RESULT:    -5.556      2.033      2.751
REMARK INTER + INTRA:          -5.974
REMARK INTER:                  -5.875
REMARK INTRA:                  -0.100
REMARK UNBOUND:                -0.094
REMARK  Name = /home/UWO/dkim728/GxVAEs-main/blind_docking/input/conformer/com85/com85_variant0_conf6.pdb
REMARK  2 active torsions:
REMARK  status: ('A' for Active; 'I' for Inactive)
REMARK    1  A    between atoms: C_1  and  C_2
REMARK    2  A    between atoms: C_2  and  C_3
REMARK                            x       y       z     vdW  Elec       q    Type
REMARK                         _______ _______ _______ _____ _____    ______ ____
ROOT
ATOM      1  C   UNL     1      -1.056  27.578  25.186  0.00  0.00    +0.480 C 
ATOM      2  O   UNL     1      -1.289  26.369  25.056  0.00  0.00    -0.532 OA
ATOM      3  N   UNL     1      -1.374  28.473  24.167  0.00  0.00    -0.564 N 
ATOM      4  C   UNL     1      -2.170  27.976  23.040  0.00  0.00    +0.272 C 
ATOM      5  C   UNL     1      -1.716  28.608  21.730  0.00  0.00    +0.044 C 
ATOM      6  C   UNL     1      -1.799  30.125  21.837  0.00  0.00    +0.212 C 
ATOM      7  N   UNL     1      -1.238  30.609  23.081  0.00  0.00    -0.509 N 
ATOM      8  C   UNL     1      -1.017  29.820  24.193  0.00  0.00    +0.572 A 
ATOM      9  N   UNL     1      -0.438  30.523  25.137  0.00  0.00    -0.540 NA
ATOM     10  C   UNL     1      -0.320  31.806  24.640  0.00  0.00    +0.185 A 
ATOM     11  C   UNL     1       0.207  32.956  25.242  0.00  0.00    -0.016 A 
ATOM     12  C   UNL     1       0.207  34.159  24.519  0.00  0.00    +0.022 A 
ATOM     13  C   UNL     1      -0.303  34.212  23.220  0.00  0.00    +0.023 A 
ATOM     14  C   UNL     1      -0.830  33.073  22.601  0.00  0.00    -0.035 A 
ATOM     15  C   UNL     1      -0.823  31.889  23.343  0.00  0.00    +0.159 A 
ENDROOT
BRANCH   1  17
ATOM     16  C   UNL     1      -1.420  28.148  27.643  0.00  0.00    +0.149 C 
ATOM     17  C   UNL     1      -0.436  28.093  26.480  0.00  0.00    +0.079 C 
ENDBRANCH   1  17
TORSDOF 1
ENDMDL
MODEL 3
REMARK VINA RESULT:    -5.490      2.452      5.606
REMARK INTER + INTRA:          -5.905
REMARK INTER:                  -5.816
REMARK INTRA:                  -0.089
REMARK UNBOUND:                -0.094
REMARK  Name = /home/UWO/dkim728/GxVAEs-main/blind_docking/input/conformer/com85/com85_variant0_conf6.pdb
REMARK  2 active torsions:
REMARK  status: ('A' for Active; 'I' for Inactive)
REMARK    1  A    between atoms: C_1  and  C_2
REMARK    2  A    between atoms: C_2  and  C_3
REMARK                            x       y       z     vdW  Elec       q    Type
REMARK                         _______ _______ _______ _____ _____    ______ ____
ROOT
ATOM      1  C   UNL     1      -0.947  33.569  23.416  0.00  0.00    +0.480 C 
ATOM      2  O   UNL     1      -1.264  34.718  23.083  0.00  0.00    -0.532 OA
ATOM      3  N   UNL     1      -1.894  32.699  23.949  0.00  0.00    -0.564 N 
ATOM      4  C   UNL     1      -3.301  33.110  23.911  0.00  0.00    +0.272 C 
ATOM      5  C   UNL     1      -4.035  32.662  25.169  0.00  0.00    +0.044 C 
ATOM      6  C   UNL     1      -3.906  31.152  25.328  0.00  0.00    +0.212 C 
ATOM      7  N   UNL     1      -2.546  30.702  25.110  0.00  0.00    -0.509 N 
ATOM      8  C   UNL     1      -1.576  31.444  24.466  0.00  0.00    +0.572 A 
ATOM      9  N   UNL     1      -0.432  30.803  24.484  0.00  0.00    -0.540 NA
ATOM     10  C   UNL     1      -0.678  29.601  25.117  0.00  0.00    +0.185 A 
ATOM     11  C   UNL     1       0.190  28.533  25.385  0.00  0.00    -0.016 A 
ATOM     12  C   UNL     1      -0.312  27.402  26.046  0.00  0.00    +0.022 A 
ATOM     13  C   UNL     1      -1.651  27.339  26.438  0.00  0.00    +0.023 A 
ATOM     14  C   UNL     1      -2.532  28.396  26.183  0.00  0.00    -0.035 A 
ATOM     15  C   UNL     1      -2.009  29.509  25.519  0.00  0.00    +0.159 A 
ENDROOT
BRANCH   1  17
ATOM     16  C   UNL     1       0.815  32.724  21.778  0.00  0.00    +0.149 C 
ATOM     17  C   UNL     1       0.490  33.097  23.220  0.00  0.00    +0.079 C 
ENDBRANCH   1  17
TORSDOF 1
ENDMDL
MODEL 4
REMARK VINA RESULT:    -5.280      1.081      3.203
REMARK INTER + INTRA:          -5.683
REMARK INTER:                  -5.610
REMARK INTRA:                  -0.072
REMARK UNBOUND:                -0.094
REMARK  Name = /home/UWO/dkim728/GxVAEs-main/blind_docking/input/conformer/com85/com85_variant0_conf6.pdb
REMARK  2 active torsions:
REMARK  status: ('A' for Active; 'I' for Inactive)
REMARK    1  A    between atoms: C_1  and  C_2
REMARK    2  A    between atoms: C_2  and  C_3
REMARK                            x       y       z     vdW  Elec       q    Type
REMARK                         _______ _______ _______ _____ _____    ______ ____
ROOT
ATOM      1  C   UNL     1      -1.440  27.652  26.369  0.00  0.00    +0.480 C 
ATOM      2  O   UNL     1      -2.061  26.821  27.044  0.00  0.00    -0.532 OA
ATOM      3  N   UNL     1      -1.949  28.935  26.182  0.00  0.00    -0.564 N 
ATOM      4  C   UNL     1      -3.123  29.328  26.968  0.00  0.00    +0.272 C 
ATOM      5  C   UNL     1      -4.060  30.206  26.148  0.00  0.00    +0.044 C 
ATOM      6  C   UNL     1      -3.305  31.426  25.637  0.00  0.00    +0.212 C 
ATOM      7  N   UNL     1      -2.015  31.068  25.084  0.00  0.00    -0.509 N 
ATOM      8  C   UNL     1      -1.369  29.872  25.328  0.00  0.00    +0.572 A 
ATOM      9  N   UNL     1      -0.257  29.810  24.636  0.00  0.00    -0.540 NA
ATOM     10  C   UNL     1      -0.160  31.011  23.962  0.00  0.00    +0.185 A 
ATOM     11  C   UNL     1       0.841  31.477  23.099  0.00  0.00    -0.016 A 
ATOM     12  C   UNL     1       0.709  32.756  22.537  0.00  0.00    +0.022 A 
ATOM     13  C   UNL     1      -0.402  33.552  22.824  0.00  0.00    +0.023 A 
ATOM     14  C   UNL     1      -1.414  33.102  23.680  0.00  0.00    -0.035 A 
ATOM     15  C   UNL     1      -1.256  31.827  24.231  0.00  0.00    +0.159 A 
ENDROOT
BRANCH   1  17
ATOM     16  C   UNL     1       0.004  25.802  25.374  0.00  0.00    +0.149 C 
ATOM     17  C   UNL     1      -0.096  27.275  25.757  0.00  0.00    +0.079 C 
ENDBRANCH   1  17
TORSDOF 1
ENDMDL
MODEL 5
REMARK VINA RESULT:    -5.070      3.669      4.954
REMARK INTER + INTRA:          -5.460
REMARK INTER:                  -5.352
REMARK INTRA:                  -0.108
REMARK UNBOUND:                -0.094
REMARK  Name = /home/UWO/dkim728/GxVAEs-main/blind_docking/input/conformer/com85/com85_variant0_conf6.pdb
REMARK  2 active torsions:
REMARK  status: ('A' for Active; 'I' for Inactive)
REMARK    1  A    between atoms: C_1  and  C_2
REMARK    2  A    between atoms: C_2  and  C_3
REMARK                            x       y       z     vdW  Elec       q    Type
REMARK                         _______ _______ _______ _____ _____    ______ ____
ROOT
ATOM      1  C   UNL     1      -0.064  32.201  24.147  0.00  0.00    +0.480 C 
ATOM      2  O   UNL     1       0.395  32.434  25.273  0.00  0.00    -0.532 OA
ATOM      3  N   UNL     1      -0.683  30.983  23.873  0.00  0.00    -0.564 N 
ATOM      4  C   UNL     1      -0.953  30.082  24.999  0.00  0.00    +0.272 C 
ATOM      5  C   UNL     1      -0.750  28.628  24.595  0.00  0.00    +0.044 C 
ATOM      6  C   UNL     1      -1.635  28.298  23.400  0.00  0.00    +0.212 C 
ATOM      7  N   UNL     1      -1.569  29.326  22.381  0.00  0.00    -0.509 N 
ATOM      8  C   UNL     1      -1.099  30.606  22.598  0.00  0.00    +0.572 A 
ATOM      9  N   UNL     1      -1.098  31.282  21.474  0.00  0.00    -0.540 NA
ATOM     10  C   UNL     1      -1.618  30.433  20.517  0.00  0.00    +0.185 A 
ATOM     11  C   UNL     1      -1.856  30.656  19.154  0.00  0.00    -0.016 A 
ATOM     12  C   UNL     1      -2.406  29.619  18.385  0.00  0.00    +0.022 A 
ATOM     13  C   UNL     1      -2.707  28.383  18.962  0.00  0.00    +0.023 A 
ATOM     14  C   UNL     1      -2.473  28.141  20.320  0.00  0.00    -0.035 A 
ATOM     15  C   UNL     1      -1.929  29.191  21.066  0.00  0.00    +0.159 A 
ENDROOT
BRANCH   1  17
ATOM     16  C   UNL     1      -0.802  34.508  23.353  0.00  0.00    +0.149 C 
ATOM     17  C   UNL     1       0.029  33.264  23.059  0.00  0.00    +0.079 C 
ENDBRANCH   1  17
TORSDOF 1
ENDMDL
MODEL 6
REMARK VINA RESULT:    -5.056      2.838      5.362
REMARK INTER + INTRA:          -5.446
REMARK INTER:                  -5.386
REMARK INTRA:                  -0.059
REMARK UNBOUND:                -0.094
REMARK  Name = /home/UWO/dkim728/GxVAEs-main/blind_docking/input/conformer/com85/com85_variant0_conf6.pdb
REMARK  2 active torsions:
REMARK  status: ('A' for Active; 'I' for Inactive)
REMARK    1  A    between atoms: C_1  and  C_2
REMARK    2  A    between atoms: C_2  and  C_3
REMARK                            x       y       z     vdW  Elec       q    Type
REMARK                         _______ _______ _______ _____ _____    ______ ____
ROOT
ATOM      1  C   UNL     1      -0.156  32.957  23.434  0.00  0.00    +0.480 C 
ATOM      2  O   UNL     1      -0.091  33.942  22.687  0.00  0.00    -0.532 OA
ATOM      3  N   UNL     1      -0.459  31.698  22.921  0.00  0.00    -0.564 N 
ATOM      4  C   UNL     1      -0.493  31.542  21.463  0.00  0.00    +0.272 C 
ATOM      5  C   UNL     1      -1.600  30.585  21.042  0.00  0.00    +0.044 C 
ATOM      6  C   UNL     1      -1.411  29.243  21.737  0.00  0.00    +0.212 C 
ATOM      7  N   UNL     1      -1.119  29.402  23.146  0.00  0.00    -0.509 N 
ATOM      8  C   UNL     1      -0.680  30.578  23.721  0.00  0.00    +0.572 A 
ATOM      9  N   UNL     1      -0.570  30.432  25.019  0.00  0.00    -0.540 NA
ATOM     10  C   UNL     1      -0.905  29.120  25.286  0.00  0.00    +0.185 A 
ATOM     11  C   UNL     1      -0.936  28.432  26.506  0.00  0.00    -0.016 A 
ATOM     12  C   UNL     1      -1.311  27.079  26.512  0.00  0.00    +0.022 A 
ATOM     13  C   UNL     1      -1.654  26.428  25.325  0.00  0.00    +0.023 A 
ATOM     14  C   UNL     1      -1.634  27.100  24.097  0.00  0.00    -0.035 A 
ATOM     15  C   UNL     1      -1.252  28.444  24.118  0.00  0.00    +0.159 A 
ENDROOT
BRANCH   1  17
ATOM     16  C   UNL     1       0.806  34.436  25.275  0.00  0.00    +0.149 C 
ATOM     17  C   UNL     1       0.118  33.121  24.925  0.00  0.00    +0.079 C 
ENDBRANCH   1  17
TORSDOF 1
ENDMDL
MODEL 7
REMARK VINA RESULT:    -4.680      3.026      4.400
REMARK INTER + INTRA:          -5.047
REMARK INTER:                  -4.965
REMARK INTRA:                  -0.082
REMARK UNBOUND:                -0.094
REMARK  Name = /home/UWO/dkim728/GxVAEs-main/blind_docking/input/conformer/com85/com85_variant0_conf6.pdb
REMARK  2 active torsions:
REMARK  status: ('A' for Active; 'I' for Inactive)
REMARK    1  A    between atoms: C_1  and  C_2
REMARK    2  A    between atoms: C_2  and  C_3
REMARK                            x       y       z     vdW  Elec       q    Type
REMARK                         _______ _______ _______ _____ _____    ______ ____
ROOT
ATOM      1  C   UNL     1      -2.185  27.343  21.600  0.00  0.00    +0.480 C 
ATOM      2  O   UNL     1      -2.768  26.252  21.627  0.00  0.00    -0.532 OA
ATOM      3  N   UNL     1      -1.865  28.005  22.783  0.00  0.00    -0.564 N 
ATOM      4  C   UNL     1      -2.051  27.281  24.046  0.00  0.00    +0.272 C 
ATOM      5  C   UNL     1      -2.547  28.214  25.142  0.00  0.00    +0.044 C 
ATOM      6  C   UNL     1      -1.573  29.373  25.310  0.00  0.00    +0.212 C 
ATOM      7  N   UNL     1      -1.180  29.935  24.034  0.00  0.00    -0.509 N 
ATOM      8  C   UNL     1      -1.333  29.292  22.821  0.00  0.00    +0.572 A 
ATOM      9  N   UNL     1      -0.951  30.078  21.843  0.00  0.00    -0.540 NA
ATOM     10  C   UNL     1      -0.502  31.239  22.439  0.00  0.00    +0.185 A 
ATOM     11  C   UNL     1       0.034  32.397  21.859  0.00  0.00    -0.016 A 
ATOM     12  C   UNL     1       0.427  33.454  22.695  0.00  0.00    +0.022 A 
ATOM     13  C   UNL     1       0.285  33.360  24.081  0.00  0.00    +0.023 A 
ATOM     14  C   UNL     1      -0.251  32.213  24.678  0.00  0.00    -0.035 A 
ATOM     15  C   UNL     1      -0.631  31.173  23.825  0.00  0.00    +0.159 A 
ENDROOT
BRANCH   1  17
ATOM     16  C   UNL     1      -1.110  26.976  19.318  0.00  0.00    +0.149 C 
ATOM     17  C   UNL     1      -1.796  27.959  20.261  0.00  0.00    +0.079 C 
ENDBRANCH   1  17
TORSDOF 1
ENDMDL
MODEL 8
REMARK VINA RESULT:    -4.307      3.595      6.024
REMARK INTER + INTRA:          -4.652
REMARK INTER:                  -4.546
REMARK INTRA:                  -0.106
REMARK UNBOUND:                -0.094
REMARK  Name = /home/UWO/dkim728/GxVAEs-main/blind_docking/input/conformer/com85/com85_variant0_conf6.pdb
REMARK  2 active torsions:
REMARK  status: ('A' for Active; 'I' for Inactive)
REMARK    1  A    between atoms: C_1  and  C_2
REMARK    2  A    between atoms: C_2  and  C_3
REMARK                            x       y       z     vdW  Elec       q    Type
REMARK                         _______ _______ _______ _____ _____    ______ ____
ROOT
ATOM      1  C   UNL     1      -1.907  30.113  20.066  0.00  0.00    +0.480 C 
ATOM      2  O   UNL     1      -1.822  30.825  19.057  0.00  0.00    -0.532 OA
ATOM      3  N   UNL     1      -1.261  30.476  21.245  0.00  0.00    -0.564 N 
ATOM      4  C   UNL     1      -0.659  31.812  21.314  0.00  0.00    +0.272 C 
ATOM      5  C   UNL     1       0.647  31.782  22.097  0.00  0.00    +0.044 C 
ATOM      6  C   UNL     1       0.399  31.217  23.489  0.00  0.00    +0.212 C 
ATOM      7  N   UNL     1      -0.422  30.024  23.447  0.00  0.00    -0.509 N 
ATOM      8  C   UNL     1      -1.205  29.656  22.371  0.00  0.00    +0.572 A 
ATOM      9  N   UNL     1      -1.775  28.498  22.602  0.00  0.00    -0.540 NA
ATOM     10  C   UNL     1      -1.386  28.128  23.874  0.00  0.00    +0.185 A 
ATOM     11  C   UNL     1      -1.722  26.991  24.620  0.00  0.00    -0.016 A 
ATOM     12  C   UNL     1      -1.192  26.847  25.912  0.00  0.00    +0.022 A 
ATOM     13  C   UNL     1      -0.340  27.816  26.446  0.00  0.00    +0.023 A 
ATOM     14  C   UNL     1       0.011  28.956  25.715  0.00  0.00    -0.035 A 
ATOM     15  C   UNL     1      -0.534  29.078  24.433  0.00  0.00    +0.159 A 
ENDROOT
BRANCH   1  17
ATOM     16  C   UNL     1      -2.269  27.839  18.973  0.00  0.00    +0.149 C 
ATOM     17  C   UNL     1      -2.743  28.839  20.022  0.00  0.00    +0.079 C 
ENDBRANCH   1  17
TORSDOF 1
ENDMDL
MODEL 9
REMARK VINA RESULT:    -4.103      3.407      4.672
REMARK INTER + INTRA:          -4.437
REMARK INTER:                  -4.346
REMARK INTRA:                  -0.091
REMARK UNBOUND:                -0.094
REMARK  Name = /home/UWO/dkim728/GxVAEs-main/blind_docking/input/conformer/com85/com85_variant0_conf6.pdb
REMARK  2 active torsions:
REMARK  status: ('A' for Active; 'I' for Inactive)
REMARK    1  A    between atoms: C_1  and  C_2
REMARK    2  A    between atoms: C_2  and  C_3
REMARK                            x       y       z     vdW  Elec       q    Type
REMARK                         _______ _______ _______ _____ _____    ______ ____
ROOT
ATOM      1  C   UNL     1      -1.434  29.029  25.264  0.00  0.00    +0.480 C 
ATOM      2  O   UNL     1      -1.496  29.325  26.464  0.00  0.00    -0.532 OA
ATOM      3  N   UNL     1      -1.560  30.011  24.284  0.00  0.00    -0.564 N 
ATOM      4  C   UNL     1      -1.559  31.413  24.715  0.00  0.00    +0.272 C 
ATOM      5  C   UNL     1      -2.524  32.243  23.877  0.00  0.00    +0.044 C 
ATOM      6  C   UNL     1      -2.162  32.118  22.403  0.00  0.00    +0.212 C 
ATOM      7  N   UNL     1      -1.906  30.743  22.025  0.00  0.00    -0.509 N 
ATOM      8  C   UNL     1      -1.635  29.728  22.922  0.00  0.00    +0.572 A 
ATOM      9  N   UNL     1      -1.518  28.586  22.288  0.00  0.00    -0.540 NA
ATOM     10  C   UNL     1      -1.676  28.875  20.947  0.00  0.00    +0.185 A 
ATOM     11  C   UNL     1      -1.624  28.026  19.834  0.00  0.00    -0.016 A 
ATOM     12  C   UNL     1      -1.813  28.573  18.555  0.00  0.00    +0.022 A 
ATOM     13  C   UNL     1      -2.055  29.939  18.391  0.00  0.00    +0.023 A 
ATOM     14  C   UNL     1      -2.115  30.802  19.491  0.00  0.00    -0.035 A 
ATOM     15  C   UNL     1      -1.918  30.234  20.753  0.00  0.00    +0.159 A 
ENDROOT
BRANCH   1  17
ATOM     16  C   UNL     1      -2.062  26.585  25.623  0.00  0.00    +0.149 C 
ATOM     17  C   UNL     1      -1.198  27.579  24.856  0.00  0.00    +0.079 C 
ENDBRANCH   1  17
TORSDOF 1
ENDMDL
