MODEL 1
REMARK VINA RESULT:    -5.555      0.000      0.000
REMARK INTER + INTRA:          -5.974
REMARK INTER:                  -5.880
REMARK INTRA:                  -0.095
REMARK UNBOUND:                -0.095
REMARK  Name = /home/UWO/dkim728/GxVAEs-main/blind_docking/input/conformer/com85/com85_variant0_conf7.pdb
REMARK  2 active torsions:
REMARK  status: ('A' for Active; 'I' for Inactive)
REMARK    1  A    between atoms: C_1  and  C_2
REMARK    2  A    between atoms: C_2  and  C_3
REMARK                            x       y       z     vdW  Elec       q    Type
REMARK                         _______ _______ _______ _____ _____    ______ ____
ROOT
ATOM      1  C   UNL     1      -1.070  27.582  25.123  0.00  0.00    +0.480 C 
ATOM      2  O   UNL     1      -1.343  26.383  25.005  0.00  0.00    -0.533 OA
ATOM      3  N   UNL     1      -1.375  28.481  24.102  0.00  0.00    -0.564 N 
ATOM      4  C   UNL     1      -2.167  27.990  22.971  0.00  0.00    +0.274 C 
ATOM      5  C   UNL     1      -1.756  28.665  21.669  0.00  0.00    +0.041 C 
ATOM      6  C   UNL     1      -1.858  30.176  21.814  0.00  0.00    +0.213 C 
ATOM      7  N   UNL     1      -1.269  30.638  23.054  0.00  0.00    -0.509 N 
ATOM      8  C   UNL     1      -1.024  29.830  24.145  0.00  0.00    +0.572 A 
ATOM      9  N   UNL     1      -0.438  30.523  25.094  0.00  0.00    -0.542 NA
ATOM     10  C   UNL     1      -0.327  31.806  24.619  0.00  0.00    +0.187 A 
ATOM     11  C   UNL     1       0.212  32.947  25.234  0.00  0.00    -0.016 A 
ATOM     12  C   UNL     1       0.208  34.158  24.531  0.00  0.00    +0.023 A 
ATOM     13  C   UNL     1      -0.323  34.236  23.242  0.00  0.00    +0.022 A 
ATOM     14  C   UNL     1      -0.864  33.109  22.611  0.00  0.00    -0.034 A 
ATOM     15  C   UNL     1      -0.848  31.910  23.335  0.00  0.00    +0.158 A 
ENDROOT
BRANCH   1  17
ATOM     16  C   UNL     1      -1.386  28.150  27.582  0.00  0.00    +0.149 C 
ATOM     17  C   UNL     1      -0.419  28.089  26.406  0.00  0.00    +0.080 C 
ENDBRANCH   1  17
TORSDOF 1
ENDMDL
MODEL 2
REMARK VINA RESULT:    -5.494      2.848      5.404
REMARK INTER + INTRA:          -5.909
REMARK INTER:                  -5.839
REMARK INTRA:                  -0.070
REMARK UNBOUND:                -0.095
REMARK  Name = /home/UWO/dkim728/GxVAEs-main/blind_docking/input/conformer/com85/com85_variant0_conf7.pdb
REMARK  2 active torsions:
REMARK  status: ('A' for Active; 'I' for Inactive)
REMARK    1  A    between atoms: C_1  and  C_2
REMARK    2  A    between atoms: C_2  and  C_3
REMARK                            x       y       z     vdW  Elec       q    Type
REMARK                         _______ _______ _______ _____ _____    ______ ____
ROOT
ATOM      1  C   UNL     1      -0.951  33.602  23.451  0.00  0.00    +0.480 C 
ATOM      2  O   UNL     1      -1.268  34.737  23.077  0.00  0.00    -0.533 OA
ATOM      3  N   UNL     1      -1.904  32.747  24.001  0.00  0.00    -0.564 N 
ATOM      4  C   UNL     1      -3.306  33.173  23.970  0.00  0.00    +0.274 C 
ATOM      5  C   UNL     1      -4.062  32.690  25.201  0.00  0.00    +0.041 C 
ATOM      6  C   UNL     1      -3.936  31.180  25.328  0.00  0.00    +0.213 C 
ATOM      7  N   UNL     1      -2.571  30.737  25.132  0.00  0.00    -0.509 N 
ATOM      8  C   UNL     1      -1.593  31.486  24.510  0.00  0.00    +0.572 A 
ATOM      9  N   UNL     1      -0.451  30.839  24.530  0.00  0.00    -0.542 NA
ATOM     10  C   UNL     1      -0.700  29.640  25.150  0.00  0.00    +0.187 A 
ATOM     11  C   UNL     1       0.170  28.573  25.421  0.00  0.00    -0.016 A 
ATOM     12  C   UNL     1      -0.334  27.441  26.075  0.00  0.00    +0.023 A 
ATOM     13  C   UNL     1      -1.676  27.371  26.451  0.00  0.00    +0.022 A 
ATOM     14  C   UNL     1      -2.560  28.425  26.191  0.00  0.00    -0.034 A 
ATOM     15  C   UNL     1      -2.031  29.545  25.537  0.00  0.00    +0.158 A 
ENDROOT
BRANCH   1  17
ATOM     16  C   UNL     1       0.814  32.698  21.858  0.00  0.00    +0.149 C 
ATOM     17  C   UNL     1       0.487  33.123  23.285  0.00  0.00    +0.080 C 
ENDBRANCH   1  17
TORSDOF 1
ENDMDL
MODEL 3
REMARK VINA RESULT:    -5.410      2.054      2.781
REMARK INTER + INTRA:          -5.821
REMARK INTER:                  -5.720
REMARK INTRA:                  -0.102
REMARK UNBOUND:                -0.095
REMARK  Name = /home/UWO/dkim728/GxVAEs-main/blind_docking/input/conformer/com85/com85_variant0_conf7.pdb
REMARK  2 active torsions:
REMARK  status: ('A' for Active; 'I' for Inactive)
REMARK    1  A    between atoms: C_1  and  C_2
REMARK    2  A    between atoms: C_2  and  C_3
REMARK                            x       y       z     vdW  Elec       q    Type
REMARK                         _______ _______ _______ _____ _____    ______ ____
ROOT
ATOM      1  C   UNL     1      -3.206  29.061  27.105  0.00  0.00    +0.480 C 
ATOM      2  O   UNL     1      -3.498  28.057  27.763  0.00  0.00    -0.533 OA
ATOM      3  N   UNL     1      -2.161  29.024  26.183  0.00  0.00    -0.564 N 
ATOM      4  C   UNL     1      -1.537  27.727  25.906  0.00  0.00    +0.274 C 
ATOM      5  C   UNL     1      -0.048  27.873  25.624  0.00  0.00    +0.041 C 
ATOM      6  C   UNL     1       0.169  28.857  24.484  0.00  0.00    +0.213 C 
ATOM      7  N   UNL     1      -0.629  30.054  24.648  0.00  0.00    -0.509 N 
ATOM      8  C   UNL     1      -1.736  30.143  25.468  0.00  0.00    +0.572 A 
ATOM      9  N   UNL     1      -2.214  31.365  25.445  0.00  0.00    -0.542 NA
ATOM     10  C   UNL     1      -1.421  32.072  24.575  0.00  0.00    +0.187 A 
ATOM     11  C   UNL     1      -1.500  33.416  24.178  0.00  0.00    -0.016 A 
ATOM     12  C   UNL     1      -0.559  33.906  23.264  0.00  0.00    +0.023 A 
ATOM     13  C   UNL     1       0.441  33.077  22.753  0.00  0.00    +0.022 A 
ATOM     14  C   UNL     1       0.538  31.734  23.137  0.00  0.00    -0.034 A 
ATOM     15  C   UNL     1      -0.415  31.268  24.052  0.00  0.00    +0.158 A 
ENDROOT
BRANCH   1  17
ATOM     16  C   UNL     1      -4.062  30.820  28.730  0.00  0.00    +0.149 C 
ATOM     17  C   UNL     1      -4.010  30.345  27.283  0.00  0.00    +0.080 C 
ENDBRANCH   1  17
TORSDOF 1
ENDMDL
MODEL 4
REMARK VINA RESULT:    -5.327      1.918      2.609
REMARK INTER + INTRA:          -5.733
REMARK INTER:                  -5.658
REMARK INTRA:                  -0.076
REMARK UNBOUND:                -0.095
REMARK  Name = /home/UWO/dkim728/GxVAEs-main/blind_docking/input/conformer/com85/com85_variant0_conf7.pdb
REMARK  2 active torsions:
REMARK  status: ('A' for Active; 'I' for Inactive)
REMARK    1  A    between atoms: C_1  and  C_2
REMARK    2  A    between atoms: C_2  and  C_3
REMARK                            x       y       z     vdW  Elec       q    Type
REMARK                         _______ _______ _______ _____ _____    ______ ____
ROOT
ATOM      1  C   UNL     1      -1.390  27.673  26.428  0.00  0.00    +0.480 C 
ATOM      2  O   UNL     1      -1.972  26.843  27.136  0.00  0.00    -0.533 OA
ATOM      3  N   UNL     1      -1.939  28.938  26.227  0.00  0.00    -0.564 N 
ATOM      4  C   UNL     1      -3.127  29.301  27.004  0.00  0.00    +0.274 C 
ATOM      5  C   UNL     1      -4.062  30.200  26.205  0.00  0.00    +0.041 C 
ATOM      6  C   UNL     1      -3.310  31.430  25.720  0.00  0.00    +0.213 C 
ATOM      7  N   UNL     1      -2.023  31.083  25.151  0.00  0.00    -0.509 N 
ATOM      8  C   UNL     1      -1.370  29.889  25.380  0.00  0.00    +0.572 A 
ATOM      9  N   UNL     1      -0.255  29.848  24.689  0.00  0.00    -0.542 NA
ATOM     10  C   UNL     1      -0.172  31.046  24.024  0.00  0.00    +0.187 A 
ATOM     11  C   UNL     1       0.824  31.524  23.157  0.00  0.00    -0.016 A 
ATOM     12  C   UNL     1       0.676  32.799  22.597  0.00  0.00    +0.023 A 
ATOM     13  C   UNL     1      -0.439  33.585  22.893  0.00  0.00    +0.022 A 
ATOM     14  C   UNL     1      -1.443  33.127  23.754  0.00  0.00    -0.034 A 
ATOM     15  C   UNL     1      -1.272  31.848  24.300  0.00  0.00    +0.158 A 
ENDROOT
BRANCH   1  17
ATOM     16  C   UNL     1       0.038  25.863  25.354  0.00  0.00    +0.149 C 
ATOM     17  C   UNL     1      -0.050  27.321  25.791  0.00  0.00    +0.080 C 
ENDBRANCH   1  17
TORSDOF 1
ENDMDL
MODEL 5
REMARK VINA RESULT:    -5.091      2.238      5.111
REMARK INTER + INTRA:          -5.483
REMARK INTER:                  -5.377
REMARK INTRA:                  -0.107
REMARK UNBOUND:                -0.095
REMARK  Name = /home/UWO/dkim728/GxVAEs-main/blind_docking/input/conformer/com85/com85_variant0_conf7.pdb
REMARK  2 active torsions:
REMARK  status: ('A' for Active; 'I' for Inactive)
REMARK    1  A    between atoms: C_1  and  C_2
REMARK    2  A    between atoms: C_2  and  C_3
REMARK                            x       y       z     vdW  Elec       q    Type
REMARK                         _______ _______ _______ _____ _____    ______ ____
ROOT
ATOM      1  C   UNL     1      -0.036  32.222  24.188  0.00  0.00    +0.480 C 
ATOM      2  O   UNL     1       0.386  32.468  25.324  0.00  0.00    -0.533 OA
ATOM      3  N   UNL     1      -0.626  30.992  23.903  0.00  0.00    -0.564 N 
ATOM      4  C   UNL     1      -0.873  30.075  25.020  0.00  0.00    +0.274 C 
ATOM      5  C   UNL     1      -0.706  28.622  24.596  0.00  0.00    +0.041 C 
ATOM      6  C   UNL     1      -1.610  28.322  23.410  0.00  0.00    +0.213 C 
ATOM      7  N   UNL     1      -1.532  29.356  22.399  0.00  0.00    -0.509 N 
ATOM      8  C   UNL     1      -1.051  30.629  22.626  0.00  0.00    +0.572 A 
ATOM      9  N   UNL     1      -1.058  31.317  21.508  0.00  0.00    -0.542 NA
ATOM     10  C   UNL     1      -1.578  30.485  20.548  0.00  0.00    +0.187 A 
ATOM     11  C   UNL     1      -1.814  30.724  19.185  0.00  0.00    -0.016 A 
ATOM     12  C   UNL     1      -2.361  29.698  18.405  0.00  0.00    +0.023 A 
ATOM     13  C   UNL     1      -2.668  28.458  18.967  0.00  0.00    +0.022 A 
ATOM     14  C   UNL     1      -2.439  28.199  20.324  0.00  0.00    -0.034 A 
ATOM     15  C   UNL     1      -1.891  29.241  21.082  0.00  0.00    +0.158 A 
ENDROOT
BRANCH   1  17
ATOM     16  C   UNL     1      -0.736  34.541  23.412  0.00  0.00    +0.149 C 
ATOM     17  C   UNL     1       0.064  33.283  23.096  0.00  0.00    +0.080 C 
ENDBRANCH   1  17
TORSDOF 1
ENDMDL
MODEL 6
REMARK VINA RESULT:    -5.052      2.223      4.954
REMARK INTER + INTRA:          -5.442
REMARK INTER:                  -5.382
REMARK INTRA:                  -0.061
REMARK UNBOUND:                -0.095
REMARK  Name = /home/UWO/dkim728/GxVAEs-main/blind_docking/input/conformer/com85/com85_variant0_conf7.pdb
REMARK  2 active torsions:
REMARK  status: ('A' for Active; 'I' for Inactive)
REMARK    1  A    between atoms: C_1  and  C_2
REMARK    2  A    between atoms: C_2  and  C_3
REMARK                            x       y       z     vdW  Elec       q    Type
REMARK                         _______ _______ _______ _____ _____    ______ ____
ROOT
ATOM      1  C   UNL     1      -0.194  32.959  23.441  0.00  0.00    +0.480 C 
ATOM      2  O   UNL     1      -0.099  33.933  22.686  0.00  0.00    -0.533 OA
ATOM      3  N   UNL     1      -0.516  31.701  22.934  0.00  0.00    -0.564 N 
ATOM      4  C   UNL     1      -0.575  31.543  21.479  0.00  0.00    +0.274 C 
ATOM      5  C   UNL     1      -1.648  30.542  21.070  0.00  0.00    +0.041 C 
ATOM      6  C   UNL     1      -1.412  29.214  21.772  0.00  0.00    +0.213 C 
ATOM      7  N   UNL     1      -1.128  29.393  23.181  0.00  0.00    -0.509 N 
ATOM      8  C   UNL     1      -0.712  30.582  23.743  0.00  0.00    +0.572 A 
ATOM      9  N   UNL     1      -0.588  30.444  25.043  0.00  0.00    -0.542 NA
ATOM     10  C   UNL     1      -0.902  29.137  25.322  0.00  0.00    +0.187 A 
ATOM     11  C   UNL     1      -0.919  28.462  26.553  0.00  0.00    -0.016 A 
ATOM     12  C   UNL     1      -1.279  27.109  26.574  0.00  0.00    +0.023 A 
ATOM     13  C   UNL     1      -1.616  26.439  25.397  0.00  0.00    +0.022 A 
ATOM     14  C   UNL     1      -1.606  27.095  24.160  0.00  0.00    -0.034 A 
ATOM     15  C   UNL     1      -1.242  28.448  24.165  0.00  0.00    +0.158 A 
ENDROOT
BRANCH   1  17
ATOM     16  C   UNL     1       0.808  34.419  25.267  0.00  0.00    +0.149 C 
ATOM     17  C   UNL     1       0.067  33.129  24.933  0.00  0.00    +0.080 C 
ENDBRANCH   1  17
TORSDOF 1
ENDMDL
MODEL 7
REMARK VINA RESULT:    -4.971      1.081      1.272
REMARK INTER + INTRA:          -5.356
REMARK INTER:                  -5.258
REMARK INTRA:                  -0.099
REMARK UNBOUND:                -0.095
REMARK  Name = /home/UWO/dkim728/GxVAEs-main/blind_docking/input/conformer/com85/com85_variant0_conf7.pdb
REMARK  2 active torsions:
REMARK  status: ('A' for Active; 'I' for Inactive)
REMARK    1  A    between atoms: C_1  and  C_2
REMARK    2  A    between atoms: C_2  and  C_3
REMARK                            x       y       z     vdW  Elec       q    Type
REMARK                         _______ _______ _______ _____ _____    ______ ____
ROOT
ATOM      1  C   UNL     1      -1.807  27.402  26.289  0.00  0.00    +0.480 C 
ATOM      2  O   UNL     1      -2.223  26.265  26.537  0.00  0.00    -0.533 OA
ATOM      3  N   UNL     1      -1.913  27.928  25.002  0.00  0.00    -0.564 N 
ATOM      4  C   UNL     1      -2.671  27.163  24.009  0.00  0.00    +0.274 C 
ATOM      5  C   UNL     1      -2.076  27.317  22.615  0.00  0.00    +0.041 C 
ATOM      6  C   UNL     1      -1.993  28.791  22.247  0.00  0.00    +0.213 C 
ATOM      7  N   UNL     1      -1.447  29.585  23.328  0.00  0.00    -0.509 N 
ATOM      8  C   UNL     1      -1.395  29.173  24.644  0.00  0.00    +0.572 A 
ATOM      9  N   UNL     1      -0.800  30.086  25.376  0.00  0.00    -0.542 NA
ATOM     10  C   UNL     1      -0.488  31.117  24.526  0.00  0.00    +0.187 A 
ATOM     11  C   UNL     1       0.145  32.341  24.794  0.00  0.00    -0.016 A 
ATOM     12  C   UNL     1       0.352  33.238  23.739  0.00  0.00    +0.023 A 
ATOM     13  C   UNL     1      -0.062  32.927  22.443  0.00  0.00    +0.022 A 
ATOM     14  C   UNL     1      -0.694  31.711  22.155  0.00  0.00    -0.034 A 
ATOM     15  C   UNL     1      -0.889  30.831  23.226  0.00  0.00    +0.158 A 
ENDROOT
BRANCH   1  17
ATOM     16  C   UNL     1      -2.126  28.412  28.601  0.00  0.00    +0.149 C 
ATOM     17  C   UNL     1      -1.198  28.246  27.403  0.00  0.00    +0.080 C 
ENDBRANCH   1  17
TORSDOF 1
ENDMDL
MODEL 8
REMARK VINA RESULT:    -4.674      1.657      3.521
REMARK INTER + INTRA:          -5.042
REMARK INTER:                  -4.955
REMARK INTRA:                  -0.087
REMARK UNBOUND:                -0.095
REMARK  Name = /home/UWO/dkim728/GxVAEs-main/blind_docking/input/conformer/com85/com85_variant0_conf7.pdb
REMARK  2 active torsions:
REMARK  status: ('A' for Active; 'I' for Inactive)
REMARK    1  A    between atoms: C_1  and  C_2
REMARK    2  A    between atoms: C_2  and  C_3
REMARK                            x       y       z     vdW  Elec       q    Type
REMARK                         _______ _______ _______ _____ _____    ______ ____
ROOT
ATOM      1  C   UNL     1      -2.193  27.355  21.577  0.00  0.00    +0.480 C 
ATOM      2  O   UNL     1      -2.736  26.245  21.596  0.00  0.00    -0.533 OA
ATOM      3  N   UNL     1      -1.888  28.013  22.768  0.00  0.00    -0.564 N 
ATOM      4  C   UNL     1      -2.082  27.283  24.023  0.00  0.00    +0.274 C 
ATOM      5  C   UNL     1      -2.528  28.212  25.145  0.00  0.00    +0.041 C 
ATOM      6  C   UNL     1      -1.531  29.349  25.303  0.00  0.00    +0.213 C 
ATOM      7  N   UNL     1      -1.165  29.926  24.026  0.00  0.00    -0.509 N 
ATOM      8  C   UNL     1      -1.346  29.297  22.810  0.00  0.00    +0.572 A 
ATOM      9  N   UNL     1      -0.967  30.090  21.835  0.00  0.00    -0.542 NA
ATOM     10  C   UNL     1      -0.508  31.239  22.430  0.00  0.00    +0.187 A 
ATOM     11  C   UNL     1       0.020  32.401  21.847  0.00  0.00    -0.016 A 
ATOM     12  C   UNL     1       0.424  33.451  22.682  0.00  0.00    +0.023 A 
ATOM     13  C   UNL     1       0.305  33.348  24.069  0.00  0.00    +0.022 A 
ATOM     14  C   UNL     1      -0.220  32.197  24.669  0.00  0.00    -0.034 A 
ATOM     15  C   UNL     1      -0.617  31.162  23.813  0.00  0.00    +0.158 A 
ENDROOT
BRANCH   1  17
ATOM     16  C   UNL     1      -1.081  27.053  19.310  0.00  0.00    +0.149 C 
ATOM     17  C   UNL     1      -1.828  27.998  20.244  0.00  0.00    +0.080 C 
ENDBRANCH   1  17
TORSDOF 1
ENDMDL
MODEL 9
REMARK VINA RESULT:    -4.315      1.615      3.936
REMARK INTER + INTRA:          -4.662
REMARK INTER:                  -4.557
REMARK INTRA:                  -0.106
REMARK UNBOUND:                -0.095
REMARK  Name = /home/UWO/dkim728/GxVAEs-main/blind_docking/input/conformer/com85/com85_variant0_conf7.pdb
REMARK  2 active torsions:
REMARK  status: ('A' for Active; 'I' for Inactive)
REMARK    1  A    between atoms: C_1  and  C_2
REMARK    2  A    between atoms: C_2  and  C_3
REMARK                            x       y       z     vdW  Elec       q    Type
REMARK                         _______ _______ _______ _____ _____    ______ ____
ROOT
ATOM      1  C   UNL     1      -0.461  28.087  25.645  0.00  0.00    +0.480 C 
ATOM      2  O   UNL     1       0.059  28.092  26.766  0.00  0.00    -0.533 OA
ATOM      3  N   UNL     1      -0.238  29.139  24.758  0.00  0.00    -0.564 N 
ATOM      4  C   UNL     1       0.751  30.154  25.133  0.00  0.00    +0.274 C 
ATOM      5  C   UNL     1       0.353  31.534  24.628  0.00  0.00    +0.041 C 
ATOM      6  C   UNL     1       0.133  31.492  23.123  0.00  0.00    +0.213 C 
ATOM      7  N   UNL     1      -0.665  30.349  22.729  0.00  0.00    -0.509 N 
ATOM      8  C   UNL     1      -0.856  29.228  23.511  0.00  0.00    +0.572 A 
ATOM      9  N   UNL     1      -1.666  28.391  22.905  0.00  0.00    -0.542 NA
ATOM     10  C   UNL     1      -1.982  28.967  21.700  0.00  0.00    +0.187 A 
ATOM     11  C   UNL     1      -2.802  28.489  20.666  0.00  0.00    -0.016 A 
ATOM     12  C   UNL     1      -2.968  29.276  19.519  0.00  0.00    +0.023 A 
ATOM     13  C   UNL     1      -2.331  30.513  19.401  0.00  0.00    +0.022 A 
ATOM     14  C   UNL     1      -1.510  31.007  20.422  0.00  0.00    -0.034 A 
ATOM     15  C   UNL     1      -1.361  30.202  21.559  0.00  0.00    +0.158 A 
ENDROOT
BRANCH   1  17
ATOM     16  C   UNL     1      -0.577  25.588  25.191  0.00  0.00    +0.149 C 
ATOM     17  C   UNL     1      -1.333  26.911  25.218  0.00  0.00    +0.080 C 
ENDBRANCH   1  17
TORSDOF 1
ENDMDL
